This is a test.

test change.

new line.